Version 4
SHEET 1 880 680
WIRE -16 -16 -96 -16
WIRE 384 -16 288 -16
WIRE -32 0 -112 0
WIRE 304 0 224 0
WIRE 64 16 16 16
WIRE 288 16 288 -16
WIRE 304 16 304 0
WIRE -32 32 -32 0
WIRE -16 32 -16 -16
WIRE 16 32 16 16
WIRE 64 32 64 16
WIRE 224 32 224 0
WIRE 384 32 368 32
WIRE 368 48 368 32
WIRE 368 48 352 48
WIRE 256 64 32 64
WIRE 384 64 352 64
WIRE 256 80 32 80
WIRE -96 128 -96 -16
WIRE 304 128 304 112
WIRE 304 128 -96 128
WIRE 320 176 320 112
WIRE 320 176 176 176
WIRE 96 208 0 208
WIRE 48 224 48 192
WIRE 96 240 96 208
WIRE 96 240 80 240
WIRE 176 240 176 176
WIRE -112 256 -112 0
WIRE -80 256 -80 208
WIRE -80 256 -112 256
WIRE 16 256 -80 256
WIRE 96 272 80 272
WIRE 48 304 48 288
WIRE 256 304 160 304
WIRE 208 320 208 288
WIRE 256 336 256 304
WIRE 256 336 240 336
WIRE 96 352 96 272
WIRE 160 352 160 304
WIRE 160 352 96 352
WIRE 176 352 160 352
WIRE 272 368 240 368
WIRE 96 384 96 352
WIRE 208 400 208 384
WIRE 96 480 96 464
WIRE 112 480 96 480
FLAG 48 192 12v
IOPIN 48 192 In
FLAG 208 288 12v
IOPIN 208 288 In
FLAG 48 304 0
FLAG 208 400 0
FLAG 320 400 0
FLAG 320 320 12v
IOPIN 320 320 In
FLAG 0 32 9v
IOPIN 0 32 In
FLAG 64 32 0
FLAG 384 32 RF+
IOPIN 384 32 In
FLAG 384 64 RF-
IOPIN 384 64 In
FLAG 224 32 0
FLAG 384 -16 offset
IOPIN 384 -16 Out
FLAG 112 480 offset
IOPIN 112 480 Out
SYMBOL pot 336 304 M0
WINDOW 0 -30 30 Left 2
SYMATTR InstName Pot
SYMATTR Value ""
SYMBOL VCXOmock -16 64 R0
SYMATTR InstName X1
SYMBOL ADE1mock 304 64 R0
SYMATTR InstName ADE-1
SYMATTR Value ADE-1
SYMBOL res 192 224 R90
WINDOW 0 0 56 VBottom 2
WINDOW 3 32 56 VTop 2
SYMATTR InstName 1k
SYMBOL res 16 192 R90
WINDOW 0 0 56 VBottom 2
WINDOW 3 32 56 VTop 2
SYMATTR InstName 20k
SYMBOL res 80 368 R0
SYMATTR InstName R
SYMATTR Value 100
SYMBOL OpAmps\\opamp2 48 192 M0
WINDOW 3 19 81 Left 2
SYMATTR InstName U2
SYMATTR Value NE5532
SYMBOL OpAmps\\opamp2 208 288 M0
WINDOW 0 12 35 Left 2
WINDOW 3 15 80 Left 2
SYMATTR InstName U1
SYMATTR Value NE5532
TEXT 272 64 Left 2 ;ADE-1
TEXT -48 64 Left 2 ;VCXO
